  
       XFOIL         Version 6.99
  
 Calculated polar for: NACA 0012                                       
  
 1 1 Reynolds number fixed          Mach number fixed         
  
 xtrf =   1.000 (top)        1.000 (bottom)  
 Mach =   0.200     Re =     4.000 e 6     Ncrit =   6.000
  
   alpha    CL        CD       CDp       CM     Top_Xtr  Bot_Xtr
  ------ -------- --------- --------- -------- -------- --------
  -5.000  -0.5724   0.00717   0.00217  -0.0010   0.7942   0.0547
  -4.850  -0.5553   0.00711   0.00209  -0.0010   0.7818   0.0585
  -4.700  -0.5383   0.00704   0.00201  -0.0009   0.7692   0.0623
  -4.550  -0.5212   0.00700   0.00194  -0.0008   0.7564   0.0652
  -4.400  -0.5043   0.00692   0.00186  -0.0007   0.7427   0.0719
  -4.250  -0.4871   0.00688   0.00180  -0.0006   0.7295   0.0755
  -4.100  -0.4701   0.00680   0.00173  -0.0006   0.7170   0.0822
  -3.950  -0.4529   0.00676   0.00167  -0.0005   0.7043   0.0867
  -3.800  -0.4360   0.00669   0.00159  -0.0004   0.6914   0.0953
  -3.650  -0.4187   0.00665   0.00154  -0.0004   0.6782   0.0997
  -3.500  -0.4017   0.00658   0.00148  -0.0003   0.6656   0.1093
  -3.350  -0.3845   0.00654   0.00143  -0.0003   0.6524   0.1165
  -3.200  -0.3674   0.00648   0.00137  -0.0002   0.6385   0.1249
  -3.050  -0.3504   0.00642   0.00132  -0.0002   0.6254   0.1351
  -2.900  -0.3330   0.00639   0.00127  -0.0002   0.6127   0.1420
  -2.750  -0.3159   0.00633   0.00122  -0.0001   0.6008   0.1522
  -2.600  -0.2988   0.00628   0.00118  -0.0001   0.5885   0.1632
  -2.450  -0.2815   0.00625   0.00114  -0.0001   0.5752   0.1723
  -2.300  -0.2644   0.00619   0.00110  -0.0001   0.5633   0.1844
  -2.150  -0.2472   0.00615   0.00106  -0.0000   0.5505   0.1957
  -2.000  -0.2301   0.00611   0.00102  -0.0000   0.5380   0.2079
  -1.850  -0.2128   0.00609   0.00100  -0.0000   0.5250   0.2174
  -1.700  -0.1956   0.00604   0.00097  -0.0000   0.5128   0.2303
  -1.550  -0.1784   0.00600   0.00094   0.0000   0.5011   0.2431
  -1.400  -0.1611   0.00597   0.00091   0.0000   0.4890   0.2552
  -1.250  -0.1439   0.00596   0.00089   0.0000   0.4749   0.2668
  -1.100  -0.1266   0.00593   0.00088   0.0000   0.4632   0.2790
  -0.950  -0.1094   0.00590   0.00086   0.0000   0.4508   0.2930
  -0.800  -0.0921   0.00588   0.00084   0.0000   0.4388   0.3047
  -0.650  -0.0749   0.00588   0.00083   0.0000   0.4255   0.3174
  -0.500  -0.0576   0.00586   0.00082   0.0000   0.4139   0.3308
  -0.350  -0.0403   0.00585   0.00081   0.0000   0.4017   0.3425
  -0.200  -0.0231   0.00583   0.00081   0.0000   0.3894   0.3568
  -0.050  -0.0058   0.00584   0.00081   0.0000   0.3762   0.3680
   0.100   0.0115   0.00584   0.00081  -0.0000   0.3637   0.3808
   0.250   0.0288   0.00585   0.00081  -0.0000   0.3509   0.3931
   0.400   0.0461   0.00585   0.00082  -0.0000   0.3387   0.4050
   0.550   0.0634   0.00586   0.00082  -0.0000   0.3263   0.4177
   0.700   0.0806   0.00589   0.00084  -0.0000   0.3116   0.4295
   0.850   0.0979   0.00590   0.00085  -0.0000   0.3004   0.4423
   1.000   0.1152   0.00590   0.00086  -0.0000   0.2891   0.4557
   1.150   0.1324   0.00593   0.00088  -0.0000   0.2763   0.4679
   1.300   0.1496   0.00596   0.00090  -0.0000   0.2630   0.4799
   1.450   0.1669   0.00600   0.00093  -0.0000   0.2495   0.4922
   1.600   0.1842   0.00601   0.00095  -0.0000   0.2389   0.5048
   1.750   0.2014   0.00605   0.00097  -0.0000   0.2264   0.5174
   1.900   0.2186   0.00609   0.00101   0.0000   0.2147   0.5289
   2.050   0.2358   0.00613   0.00104   0.0000   0.2030   0.5412
   2.200   0.2530   0.00616   0.00107   0.0000   0.1924   0.5546
   2.350   0.2702   0.00620   0.00111   0.0001   0.1814   0.5674
   2.500   0.2873   0.00626   0.00115   0.0001   0.1688   0.5794
   2.650   0.3045   0.00631   0.00119   0.0001   0.1591   0.5915
   2.800   0.3217   0.00634   0.00124   0.0001   0.1497   0.6053
   2.950   0.3388   0.00640   0.00129   0.0002   0.1396   0.6178
   3.100   0.3560   0.00644   0.00134   0.0002   0.1314   0.6304
   3.250   0.3732   0.00650   0.00139   0.0002   0.1223   0.6436
   3.400   0.3902   0.00656   0.00144   0.0003   0.1134   0.6567
   3.550   0.4074   0.00659   0.00150   0.0003   0.1070   0.6698
   3.700   0.4245   0.00666   0.00156   0.0004   0.0982   0.6823
   3.850   0.4417   0.00671   0.00162   0.0004   0.0927   0.6950
   4.000   0.4587   0.00678   0.00168   0.0005   0.0854   0.7078
   4.150   0.4758   0.00683   0.00175   0.0006   0.0800   0.7212
   4.300   0.4929   0.00689   0.00182   0.0006   0.0744   0.7346
   4.450   0.5100   0.00694   0.00189   0.0007   0.0703   0.7477
   4.600   0.5270   0.00701   0.00197   0.0008   0.0643   0.7602
   4.750   0.5441   0.00706   0.00203   0.0009   0.0612   0.7736
   4.900   0.5610   0.00713   0.00212   0.0010   0.0570   0.7865
   5.050   0.5781   0.00718   0.00219   0.0011   0.0541   0.7989
   5.200   0.5951   0.00726   0.00228   0.0012   0.0505   0.8108
   5.350   0.6120   0.00733   0.00236   0.0013   0.0469   0.8232
   5.500   0.6290   0.00739   0.00244   0.0014   0.0450   0.8350
   5.650   0.6458   0.00746   0.00254   0.0016   0.0425   0.8464
   5.800   0.6627   0.00754   0.00263   0.0017   0.0397   0.8577
   5.950   0.6796   0.00760   0.00272   0.0019   0.0382   0.8689
   6.100   0.6963   0.00770   0.00282   0.0020   0.0357   0.8789
   6.250   0.7131   0.00778   0.00292   0.0022   0.0338   0.8892
   6.400   0.7298   0.00785   0.00302   0.0024   0.0327   0.8989
   6.550   0.7466   0.00794   0.00312   0.0026   0.0312   0.9077
   6.700   0.7630   0.00804   0.00323   0.0029   0.0294   0.9169
   7.000   0.7961   0.00822   0.00344   0.0033   0.0274   0.9329
   7.150   0.8126   0.00834   0.00356   0.0036   0.0259   0.9399
   7.300   0.8286   0.00845   0.00369   0.0039   0.0245   0.9472
   7.450   0.8451   0.00855   0.00380   0.0042   0.0239   0.9537
   7.600   0.8614   0.00865   0.00392   0.0045   0.0232   0.9594
   7.750   0.8775   0.00877   0.00404   0.0049   0.0224   0.9654
   7.900   0.8938   0.00890   0.00417   0.0051   0.0214   0.9702
   8.050   0.9103   0.00904   0.00431   0.0054   0.0203   0.9748
   8.200   0.9272   0.00916   0.00443   0.0056   0.0198   0.9792
   8.350   0.9438   0.00929   0.00456   0.0058   0.0192   0.9829
   8.500   0.9622   0.00943   0.00471   0.0056   0.0186   0.9853
   8.650   0.9804   0.00959   0.00486   0.0055   0.0178   0.9878
   8.800   0.9983   0.00976   0.00502   0.0054   0.0170   0.9903
   8.950   1.0157   0.00990   0.00517   0.0054   0.0167   0.9927
   9.100   1.0340   0.01004   0.00532   0.0053   0.0164   0.9942
   9.250   1.0533   0.01021   0.00548   0.0049   0.0159   0.9951
   9.400   1.0725   0.01038   0.00565   0.0046   0.0154   0.9959
   9.550   1.0915   0.01057   0.00584   0.0042   0.0149   0.9967
   9.700   1.1103   0.01076   0.00603   0.0040   0.0143   0.9975
   9.850   1.1289   0.01095   0.00623   0.0037   0.0138   0.9983
  10.000   1.1477   0.01112   0.00641   0.0035   0.0136   0.9990
  10.150   1.1663   0.01131   0.00659   0.0032   0.0133   0.9996
  10.300   1.1839   0.01149   0.00679   0.0032   0.0130   1.0000
  10.450   1.1978   0.01167   0.00697   0.0040   0.0127   1.0000
  10.600   1.2118   0.01185   0.00716   0.0048   0.0124   1.0000
  10.750   1.2258   0.01205   0.00736   0.0055   0.0120   1.0000
  10.900   1.2401   0.01226   0.00758   0.0062   0.0117   1.0000
  11.050   1.2545   0.01248   0.00781   0.0068   0.0113   1.0000
  11.200   1.2693   0.01268   0.00802   0.0074   0.0111   1.0000
  11.350   1.2843   0.01288   0.00823   0.0079   0.0110   1.0000
  11.500   1.2992   0.01308   0.00845   0.0085   0.0109   1.0000
  11.650   1.3141   0.01329   0.00867   0.0090   0.0107   1.0000
  11.800   1.3290   0.01352   0.00891   0.0096   0.0105   1.0000
  11.950   1.3437   0.01375   0.00915   0.0101   0.0103   1.0000
  12.100   1.3583   0.01399   0.00941   0.0107   0.0101   1.0000
  12.250   1.3728   0.01425   0.00968   0.0113   0.0099   1.0000
  12.400   1.3871   0.01451   0.00996   0.0119   0.0097   1.0000
  12.550   1.4012   0.01479   0.01025   0.0125   0.0095   1.0000
  12.700   1.4151   0.01508   0.01056   0.0132   0.0092   1.0000
  12.850   1.4286   0.01540   0.01090   0.0139   0.0089   1.0000
  13.000   1.4424   0.01569   0.01121   0.0146   0.0088   1.0000
  13.150   1.4563   0.01596   0.01150   0.0152   0.0087   1.0000
  13.300   1.4699   0.01624   0.01181   0.0159   0.0086   1.0000
  13.450   1.4832   0.01654   0.01213   0.0166   0.0085   1.0000
  13.600   1.4963   0.01685   0.01247   0.0174   0.0084   1.0000
  13.750   1.5090   0.01718   0.01282   0.0182   0.0083   1.0000
  13.900   1.5214   0.01751   0.01318   0.0190   0.0082   1.0000
  14.050   1.5334   0.01786   0.01355   0.0199   0.0081   1.0000
  14.200   1.5450   0.01823   0.01394   0.0209   0.0080   1.0000
  14.350   1.5559   0.01861   0.01435   0.0219   0.0079   1.0000
  14.500   1.5650   0.01899   0.01476   0.0232   0.0077   1.0000
  14.650   1.5731   0.01940   0.01520   0.0247   0.0076   1.0000
  14.800   1.5809   0.01983   0.01566   0.0261   0.0075   1.0000
  14.950   1.5882   0.02032   0.01618   0.0275   0.0074   1.0000
  15.100   1.5953   0.02083   0.01672   0.0289   0.0073   1.0000
  15.250   1.6020   0.02138   0.01731   0.0302   0.0072   1.0000
  15.400   1.6080   0.02200   0.01797   0.0316   0.0070   1.0000
  15.550   1.6136   0.02267   0.01868   0.0328   0.0069   1.0000
  15.700   1.6184   0.02341   0.01947   0.0340   0.0068   1.0000
  15.850   1.6243   0.02411   0.02021   0.0350   0.0068   1.0000
  16.000   1.6298   0.02486   0.02101   0.0360   0.0068   1.0000
  16.150   1.6349   0.02569   0.02188   0.0369   0.0067   1.0000
  16.300   1.6398   0.02657   0.02280   0.0376   0.0067   1.0000
  16.450   1.6436   0.02756   0.02383   0.0384   0.0067   1.0000
  16.600   1.6472   0.02861   0.02494   0.0389   0.0066   1.0000
  16.750   1.6502   0.02978   0.02616   0.0394   0.0066   1.0000
  16.900   1.6525   0.03106   0.02748   0.0397   0.0066   1.0000
  17.050   1.6541   0.03245   0.02893   0.0399   0.0065   1.0000
  17.200   1.6552   0.03397   0.03050   0.0400   0.0065   1.0000
  17.350   1.6553   0.03565   0.03224   0.0398   0.0064   1.0000
  17.500   1.6545   0.03748   0.03412   0.0396   0.0064   1.0000
  17.650   1.6528   0.03947   0.03616   0.0391   0.0064   1.0000
  17.800   1.6501   0.04165   0.03841   0.0385   0.0063   1.0000
  17.950   1.6463   0.04404   0.04085   0.0376   0.0063   1.0000
  18.100   1.6408   0.04666   0.04354   0.0366   0.0063   1.0000
  18.250   1.6337   0.04954   0.04648   0.0354   0.0062   1.0000
  18.400   1.6255   0.05263   0.04964   0.0340   0.0062   1.0000
  18.550   1.6156   0.05600   0.05308   0.0324   0.0062   1.0000
  18.700   1.6028   0.05977   0.05692   0.0305   0.0062   1.0000
  18.850   1.5890   0.06375   0.06097   0.0285   0.0062   1.0000
  19.000   1.5727   0.06814   0.06543   0.0263   0.0062   1.0000
  19.150   1.5537   0.07296   0.07033   0.0237   0.0062   1.0000
  19.300   1.5322   0.07820   0.07564   0.0209   0.0062   1.0000
  19.450   1.5090   0.08375   0.08127   0.0179   0.0062   1.0000
  19.600   1.4820   0.08993   0.08754   0.0145   0.0063   1.0000
  19.750   1.4524   0.09658   0.09428   0.0109   0.0063   1.0000
  19.900   1.4226   0.10342   0.10120   0.0071   0.0063   1.0000
  20.050   1.3870   0.11124   0.10912   0.0026   0.0064   1.0000
  20.200   1.3505   0.11942   0.11738  -0.0022   0.0064   1.0000
  20.350   1.3146   0.12773   0.12579  -0.0071   0.0065   1.0000
  20.500   1.2801   0.13597   0.13411  -0.0121   0.0065   1.0000
  20.650   1.2400   0.14559   0.14383  -0.0182   0.0066   1.0000
  20.800   1.2088   0.15395   0.15226  -0.0236   0.0066   1.0000
  20.950   1.1802   0.16201   0.16039  -0.0288   0.0066   1.0000
  21.100   1.1552   0.16968   0.16813  -0.0339   0.0066   1.0000
  21.250   1.1373   0.17616   0.17466  -0.0383   0.0066   1.0000
  21.400   1.1242   0.18176   0.18031  -0.0421   0.0066   1.0000
  21.550   1.1085   0.18811   0.18670  -0.0464   0.0066   1.0000
  21.700   1.1023   0.19232   0.19094  -0.0493   0.0066   1.0000
  21.850   1.0906   0.19793   0.19659  -0.0531   0.0066   1.0000
  22.000   1.0864   0.20179   0.20048  -0.0558   0.0065   1.0000
  22.150   1.0824   0.20567   0.20438  -0.0585   0.0065   1.0000
  22.300   1.0752   0.21050   0.20924  -0.0618   0.0064   1.0000
  22.450   1.0735   0.21390   0.21266  -0.0642   0.0064   1.0000
  22.600   1.0710   0.21756   0.21635  -0.0668   0.0063   1.0000
  22.750   1.0660   0.22203   0.22084  -0.0699   0.0063   1.0000
  22.900   1.0658   0.22516   0.22399  -0.0722   0.0062   1.0000
  23.050   1.0648   0.22854   0.22738  -0.0746   0.0061   1.0000
