  
       XFOIL         Version 6.99
  
 Calculated polar for: NACA 65-210                                     
  
 1 1 Reynolds number fixed          Mach number fixed         
  
 xtrf =   1.000 (top)        1.000 (bottom)  
 Mach =   0.200     Re =     3.000 e 6     Ncrit =   4.000
  
   alpha    CL        CD       CDp       CM     Top_Xtr  Bot_Xtr
  ------ -------- --------- --------- -------- -------- --------
