  
       XFOIL         Version 6.99
  
 Calculated polar for: NACA 0012                                       
  
 1 1 Reynolds number fixed          Mach number fixed         
  
 xtrf =   1.000 (top)        1.000 (bottom)  
 Mach =   0.200     Re =     7.000 e 6     Ncrit =   5.000
  
   alpha    CL        CD       CDp       CM     Top_Xtr  Bot_Xtr
  ------ -------- --------- --------- -------- -------- --------
  -5.000  -0.5792   0.00703   0.00198   0.0001   0.6363   0.0394
  -4.850  -0.5619   0.00698   0.00191   0.0001   0.6238   0.0419
  -4.700  -0.5447   0.00692   0.00185   0.0002   0.6127   0.0450
  -4.550  -0.5272   0.00688   0.00179   0.0002   0.6014   0.0467
  -4.400  -0.5099   0.00684   0.00173   0.0002   0.5901   0.0495
  -4.250  -0.4926   0.00678   0.00167   0.0002   0.5793   0.0528
  -4.100  -0.4752   0.00674   0.00162   0.0003   0.5676   0.0552
  -3.950  -0.4580   0.00669   0.00155   0.0003   0.5556   0.0608
  -3.800  -0.4406   0.00666   0.00151   0.0003   0.5427   0.0637
  -3.650  -0.4232   0.00660   0.00145   0.0003   0.5332   0.0692
  -3.500  -0.4059   0.00656   0.00140   0.0003   0.5224   0.0734
  -3.350  -0.3884   0.00654   0.00136   0.0003   0.5105   0.0768
  -3.200  -0.3711   0.00647   0.00131   0.0003   0.5015   0.0837
  -3.050  -0.3536   0.00645   0.00127   0.0003   0.4903   0.0875
  -2.750  -0.3190   0.00637   0.00119   0.0003   0.4678   0.1022
  -2.600  -0.3016   0.00632   0.00115   0.0003   0.4571   0.1093
  -2.450  -0.2841   0.00631   0.00112   0.0003   0.4460   0.1141
  -2.300  -0.2668   0.00626   0.00108   0.0003   0.4352   0.1235
  -2.150  -0.2494   0.00623   0.00105   0.0003   0.4257   0.1312
  -2.000  -0.2320   0.00619   0.00102   0.0003   0.4151   0.1392
  -1.850  -0.2146   0.00617   0.00099   0.0003   0.4051   0.1477
  -1.700  -0.1972   0.00615   0.00097   0.0002   0.3928   0.1550
  -1.550  -0.1799   0.00611   0.00094   0.0002   0.3821   0.1667
  -1.400  -0.1624   0.00609   0.00093   0.0002   0.3724   0.1747
  -1.250  -0.1450   0.00607   0.00091   0.0002   0.3609   0.1847
  -0.950  -0.1101   0.00604   0.00087   0.0001   0.3404   0.2035
  -0.800  -0.0929   0.00602   0.00086   0.0001   0.3278   0.2157
  -0.500  -0.0579   0.00600   0.00084   0.0001   0.3078   0.2342
  -0.350  -0.0406   0.00599   0.00083   0.0001   0.2955   0.2470
  -0.050  -0.0057   0.00598   0.00083  -0.0000   0.2761   0.2684
   0.100   0.0116   0.00599   0.00083  -0.0000   0.2632   0.2782
   0.250   0.0290   0.00598   0.00083  -0.0000   0.2540   0.2902
   0.400   0.0465   0.00598   0.00083  -0.0001   0.2448   0.3012
   0.550   0.0638   0.00600   0.00084  -0.0001   0.2316   0.3109
   0.700   0.0813   0.00599   0.00085  -0.0001   0.2247   0.3234
   0.850   0.0987   0.00602   0.00086  -0.0001   0.2127   0.3323
   1.000   0.1161   0.00605   0.00088  -0.0002   0.2003   0.3421
   1.150   0.1334   0.00606   0.00089  -0.0002   0.1913   0.3544
   1.300   0.1509   0.00607   0.00091  -0.0002   0.1824   0.3649
   1.450   0.1682   0.00610   0.00093  -0.0002   0.1710   0.3756
   1.600   0.1856   0.00612   0.00095  -0.0002   0.1631   0.3871
   1.750   0.2031   0.00614   0.00098  -0.0003   0.1544   0.3973
   1.900   0.2204   0.00619   0.00101  -0.0003   0.1437   0.4078
   2.200   0.2552   0.00625   0.00107  -0.0003   0.1263   0.4276
   2.500   0.2900   0.00631   0.00113  -0.0003   0.1121   0.4507
   2.650   0.3075   0.00634   0.00116  -0.0003   0.1074   0.4595
   2.800   0.3248   0.00638   0.00120  -0.0003   0.0986   0.4713
   2.950   0.3422   0.00642   0.00124  -0.0003   0.0935   0.4811
   3.100   0.3595   0.00646   0.00129  -0.0003   0.0859   0.4937
   3.250   0.3770   0.00649   0.00132  -0.0003   0.0824   0.5048
   3.400   0.3942   0.00654   0.00138  -0.0003   0.0749   0.5146
   3.550   0.4117   0.00657   0.00142  -0.0003   0.0723   0.5253
   3.700   0.4289   0.00663   0.00147  -0.0003   0.0657   0.5374
   3.850   0.4464   0.00666   0.00152  -0.0003   0.0628   0.5488
   4.000   0.4637   0.00671   0.00158  -0.0003   0.0592   0.5599
   4.150   0.4811   0.00675   0.00163  -0.0003   0.0551   0.5712
   4.300   0.4984   0.00680   0.00169  -0.0003   0.0521   0.5822
   4.450   0.5157   0.00686   0.00175  -0.0002   0.0482   0.5927
   4.600   0.5331   0.00689   0.00180  -0.0002   0.0463   0.6047
   4.750   0.5504   0.00694   0.00187  -0.0002   0.0438   0.6162
   4.900   0.5677   0.00701   0.00194  -0.0001   0.0401   0.6269
   5.050   0.5850   0.00704   0.00200  -0.0001   0.0389   0.6396
   5.200   0.6023   0.00709   0.00207  -0.0001   0.0370   0.6525
   5.350   0.6195   0.00716   0.00214   0.0000   0.0343   0.6637
   5.500   0.6368   0.00720   0.00221   0.0000   0.0330   0.6763
   5.650   0.6540   0.00726   0.00229   0.0001   0.0314   0.6884
   5.800   0.6712   0.00733   0.00237   0.0002   0.0293   0.7002
   5.950   0.6885   0.00738   0.00244   0.0002   0.0284   0.7117
   6.100   0.7058   0.00743   0.00252   0.0003   0.0275   0.7243
   6.250   0.7229   0.00749   0.00261   0.0004   0.0263   0.7373
   6.400   0.7400   0.00757   0.00270   0.0005   0.0245   0.7494
   6.550   0.7572   0.00763   0.00278   0.0006   0.0239   0.7614
   6.700   0.7744   0.00769   0.00287   0.0006   0.0230   0.7740
   6.850   0.7914   0.00777   0.00297   0.0008   0.0219   0.7866
   7.000   0.8084   0.00784   0.00307   0.0009   0.0207   0.7983
   7.150   0.8255   0.00791   0.00316   0.0010   0.0201   0.8105
   7.300   0.8426   0.00798   0.00325   0.0011   0.0197   0.8228
   7.450   0.8595   0.00806   0.00336   0.0013   0.0188   0.8350
   7.600   0.8764   0.00815   0.00347   0.0014   0.0181   0.8464
   7.750   0.8932   0.00824   0.00358   0.0016   0.0171   0.8577
   7.900   0.9101   0.00832   0.00369   0.0018   0.0167   0.8699
   8.050   0.9270   0.00840   0.00380   0.0020   0.0163   0.8804
   8.200   0.9438   0.00849   0.00391   0.0021   0.0159   0.8906
   8.350   0.9604   0.00858   0.00403   0.0024   0.0154   0.9010
   8.500   0.9770   0.00870   0.00417   0.0026   0.0148   0.9101
   8.650   0.9934   0.00881   0.00430   0.0029   0.0142   0.9201
   8.800   1.0099   0.00891   0.00442   0.0032   0.0138   0.9285
   8.950   1.0264   0.00901   0.00454   0.0035   0.0136   0.9373
   9.100   1.0427   0.00911   0.00467   0.0038   0.0134   0.9449
   9.250   1.0589   0.00923   0.00480   0.0041   0.0131   0.9528
   9.400   1.0749   0.00936   0.00495   0.0045   0.0127   0.9591
   9.550   1.0906   0.00950   0.00510   0.0049   0.0122   0.9661
   9.700   1.1067   0.00965   0.00525   0.0053   0.0118   0.9712
   9.850   1.1223   0.00979   0.00541   0.0058   0.0112   0.9772
  10.000   1.1387   0.00993   0.00555   0.0061   0.0111   0.9818
  10.150   1.1558   0.01007   0.00570   0.0062   0.0110   0.9854
  10.300   1.1732   0.01022   0.00586   0.0063   0.0108   0.9888
  10.450   1.1905   0.01038   0.00602   0.0064   0.0106   0.9918
  10.600   1.2076   0.01055   0.00619   0.0065   0.0103   0.9939
  10.750   1.2263   0.01073   0.00638   0.0063   0.0101   0.9952
  10.900   1.2447   0.01093   0.00657   0.0061   0.0098   0.9964
  11.050   1.2628   0.01113   0.00678   0.0060   0.0095   0.9977
  11.200   1.2807   0.01133   0.00698   0.0060   0.0091   0.9989
  11.350   1.2985   0.01153   0.00719   0.0059   0.0089   0.9998
  11.500   1.3143   0.01171   0.00738   0.0063   0.0088   1.0000
  11.650   1.3295   0.01189   0.00756   0.0069   0.0087   1.0000
  11.800   1.3449   0.01207   0.00776   0.0074   0.0086   1.0000
  11.950   1.3602   0.01227   0.00796   0.0079   0.0085   1.0000
  12.100   1.3755   0.01246   0.00817   0.0084   0.0084   1.0000
  12.250   1.3907   0.01267   0.00838   0.0089   0.0083   1.0000
  12.400   1.4057   0.01289   0.00861   0.0094   0.0081   1.0000
  12.550   1.4206   0.01313   0.00885   0.0100   0.0078   1.0000
  12.700   1.4354   0.01337   0.00911   0.0105   0.0076   1.0000
  12.850   1.4501   0.01362   0.00937   0.0111   0.0075   1.0000
  13.000   1.4646   0.01388   0.00963   0.0117   0.0073   1.0000
  13.150   1.4790   0.01414   0.00991   0.0123   0.0070   1.0000
  13.300   1.4934   0.01440   0.01019   0.0129   0.0069   1.0000
  13.450   1.5077   0.01466   0.01046   0.0136   0.0068   1.0000
  13.600   1.5220   0.01492   0.01073   0.0142   0.0068   1.0000
  13.750   1.5361   0.01518   0.01101   0.0149   0.0067   1.0000
  13.900   1.5500   0.01545   0.01130   0.0156   0.0067   1.0000
  14.050   1.5637   0.01573   0.01160   0.0163   0.0066   1.0000
  14.200   1.5771   0.01602   0.01191   0.0170   0.0065   1.0000
  14.350   1.5903   0.01632   0.01223   0.0178   0.0065   1.0000
  14.500   1.6032   0.01663   0.01256   0.0186   0.0064   1.0000
  14.650   1.6156   0.01696   0.01290   0.0195   0.0063   1.0000
  14.800   1.6278   0.01729   0.01326   0.0204   0.0062   1.0000
  14.950   1.6392   0.01764   0.01363   0.0214   0.0061   1.0000
  15.100   1.6497   0.01800   0.01401   0.0226   0.0061   1.0000
  15.250   1.6583   0.01837   0.01441   0.0240   0.0060   1.0000
  15.400   1.6663   0.01876   0.01483   0.0255   0.0059   1.0000
  15.550   1.6741   0.01919   0.01528   0.0270   0.0058   1.0000
  15.700   1.6815   0.01965   0.01577   0.0284   0.0057   1.0000
  15.850   1.6888   0.02014   0.01629   0.0298   0.0057   1.0000
  16.000   1.6957   0.02067   0.01685   0.0311   0.0056   1.0000
  16.150   1.7022   0.02124   0.01745   0.0324   0.0055   1.0000
  16.300   1.7081   0.02187   0.01811   0.0337   0.0054   1.0000
  16.450   1.7138   0.02254   0.01882   0.0349   0.0053   1.0000
  16.600   1.7193   0.02325   0.01957   0.0360   0.0052   1.0000
  16.750   1.7242   0.02404   0.02039   0.0370   0.0052   1.0000
  16.900   1.7287   0.02489   0.02129   0.0379   0.0051   1.0000
  17.050   1.7333   0.02577   0.02221   0.0388   0.0050   1.0000
  17.200   1.7375   0.02672   0.02320   0.0395   0.0050   1.0000
  17.350   1.7416   0.02773   0.02424   0.0401   0.0050   1.0000
  17.500   1.7450   0.02885   0.02540   0.0406   0.0050   1.0000
  17.650   1.7478   0.03005   0.02665   0.0411   0.0050   1.0000
  17.800   1.7497   0.03139   0.02803   0.0413   0.0050   1.0000
  17.950   1.7513   0.03281   0.02950   0.0415   0.0049   1.0000
  18.100   1.7520   0.03439   0.03113   0.0415   0.0049   1.0000
  18.250   1.7519   0.03610   0.03288   0.0413   0.0049   1.0000
  18.400   1.7506   0.03798   0.03481   0.0410   0.0049   1.0000
  18.550   1.7486   0.04001   0.03689   0.0405   0.0049   1.0000
  18.700   1.7453   0.04225   0.03918   0.0399   0.0048   1.0000
  18.850   1.7409   0.04466   0.04165   0.0391   0.0048   1.0000
  19.000   1.7349   0.04729   0.04433   0.0381   0.0048   1.0000
  19.150   1.7274   0.05017   0.04727   0.0369   0.0048   1.0000
  19.300   1.7184   0.05331   0.05047   0.0355   0.0048   1.0000
  19.450   1.7079   0.05665   0.05388   0.0340   0.0048   1.0000
  19.600   1.6948   0.06039   0.05768   0.0322   0.0048   1.0000
  19.750   1.6805   0.06435   0.06170   0.0303   0.0048   1.0000
  19.900   1.6634   0.06876   0.06619   0.0280   0.0048   1.0000
  20.050   1.6439   0.07349   0.07099   0.0255   0.0048   1.0000
  20.200   1.6229   0.07851   0.07608   0.0229   0.0048   1.0000
  20.350   1.5977   0.08424   0.08188   0.0198   0.0048   1.0000
  20.500   1.5722   0.09000   0.08772   0.0166   0.0048   1.0000
  20.650   1.5416   0.09663   0.09443   0.0129   0.0048   1.0000
  20.800   1.5091   0.10368   0.10156   0.0089   0.0048   1.0000
  20.950   1.4756   0.11091   0.10887   0.0047   0.0049   1.0000
  21.100   1.4369   0.11920   0.11725  -0.0002   0.0049   1.0000
  21.250   1.4014   0.12718   0.12532  -0.0051   0.0049   1.0000
  21.400   1.3664   0.13520   0.13342  -0.0101   0.0049   1.0000
  21.550   1.3210   0.14542   0.14374  -0.0167   0.0050   1.0000
  21.700   1.2865   0.15406   0.15247  -0.0225   0.0050   1.0000
  21.850   1.2535   0.16265   0.16113  -0.0283   0.0050   1.0000
  22.000   1.2221   0.17135   0.16991  -0.0343   0.0050   1.0000
  22.150   1.1942   0.17975   0.17838  -0.0403   0.0050   1.0000
  22.300   1.1701   0.18768   0.18638  -0.0459   0.0050   1.0000
  22.600   1.1394   0.20011   0.19889  -0.0547   0.0050   1.0000
  22.750   1.1245   0.20654   0.20537  -0.0593   0.0050   1.0000
  22.900   1.1109   0.21286   0.21174  -0.0638   0.0050   1.0000
  23.050   1.1079   0.21657   0.21547  -0.0665   0.0050   1.0000
