  
       XFOIL         Version 6.99
  
 Calculated polar for: NACA 0012                                       
  
 1 1 Reynolds number fixed          Mach number fixed         
  
 xtrf =   1.000 (top)        1.000 (bottom)  
 Mach =   0.200     Re =     5.600 e 6     Ncrit =   6.000
  
   alpha    CL        CD       CDp       CM     Top_Xtr  Bot_Xtr
  ------ -------- --------- --------- -------- -------- --------
  -5.000  -0.5762   0.00696   0.00203  -0.0004   0.7324   0.0473
  -4.850  -0.5592   0.00689   0.00195  -0.0003   0.7202   0.0519
  -4.700  -0.5419   0.00685   0.00189  -0.0002   0.7066   0.0544
  -4.550  -0.5246   0.00681   0.00183  -0.0002   0.6933   0.0574
  -4.400  -0.5075   0.00674   0.00176  -0.0001   0.6815   0.0617
  -4.250  -0.4901   0.00670   0.00170  -0.0001   0.6693   0.0645
  -4.100  -0.4731   0.00663   0.00163  -0.0001   0.6566   0.0712
  -3.950  -0.4557   0.00659   0.00158  -0.0000   0.6443   0.0746
  -3.800  -0.4386   0.00653   0.00151   0.0000   0.6311   0.0818
  -3.650  -0.4213   0.00649   0.00146   0.0000   0.6186   0.0862
  -3.500  -0.4041   0.00644   0.00141   0.0001   0.6061   0.0933
  -3.350  -0.3867   0.00641   0.00136   0.0001   0.5935   0.0982
  -3.200  -0.3695   0.00634   0.00131   0.0001   0.5819   0.1076
  -3.050  -0.3521   0.00631   0.00126   0.0001   0.5700   0.1126
  -2.900  -0.3350   0.00626   0.00121   0.0001   0.5580   0.1225
  -2.750  -0.3176   0.00622   0.00118   0.0001   0.5453   0.1303
  -2.600  -0.3003   0.00617   0.00113   0.0001   0.5352   0.1384
  -2.450  -0.2831   0.00613   0.00109   0.0002   0.5217   0.1492
  -2.300  -0.2658   0.00611   0.00106   0.0002   0.5086   0.1561
  -2.150  -0.2486   0.00605   0.00102   0.0002   0.4975   0.1686
  -2.000  -0.2312   0.00601   0.00099   0.0002   0.4872   0.1786
  -1.850  -0.2138   0.00600   0.00097   0.0001   0.4750   0.1859
  -1.700  -0.1965   0.00595   0.00094   0.0001   0.4640   0.1986
  -1.550  -0.1792   0.00592   0.00091   0.0001   0.4524   0.2110
  -1.400  -0.1618   0.00591   0.00089   0.0001   0.4402   0.2201
  -1.250  -0.1445   0.00588   0.00087   0.0001   0.4278   0.2310
  -1.100  -0.1273   0.00585   0.00085   0.0001   0.4155   0.2445
  -0.950  -0.1099   0.00582   0.00083   0.0001   0.4045   0.2568
  -0.800  -0.0926   0.00582   0.00082   0.0001   0.3921   0.2675
  -0.650  -0.0752   0.00581   0.00081   0.0001   0.3807   0.2786
  -0.500  -0.0578   0.00579   0.00080   0.0001   0.3699   0.2899
  -0.350  -0.0405   0.00578   0.00079   0.0000   0.3575   0.3027
  -0.200  -0.0231   0.00579   0.00079   0.0000   0.3451   0.3118
  -0.050  -0.0058   0.00578   0.00079   0.0000   0.3335   0.3260
   0.100   0.0116   0.00577   0.00079  -0.0000   0.3221   0.3388
   0.250   0.0289   0.00578   0.00079  -0.0000   0.3100   0.3501
   0.400   0.0463   0.00579   0.00080  -0.0001   0.2977   0.3608
   0.550   0.0636   0.00580   0.00080  -0.0001   0.2861   0.3734
   0.700   0.0810   0.00580   0.00081  -0.0001   0.2752   0.3845
   0.850   0.0984   0.00583   0.00083  -0.0001   0.2630   0.3963
   1.000   0.1157   0.00584   0.00084  -0.0001   0.2512   0.4087
   1.150   0.1330   0.00585   0.00086  -0.0001   0.2401   0.4213
   1.300   0.1504   0.00588   0.00087  -0.0001   0.2294   0.4322
   1.450   0.1677   0.00592   0.00090  -0.0001   0.2164   0.4426
   1.600   0.1850   0.00594   0.00092  -0.0002   0.2064   0.4558
   1.750   0.2024   0.00595   0.00094  -0.0002   0.1968   0.4682
   1.900   0.2197   0.00600   0.00097  -0.0002   0.1846   0.4795
   2.050   0.2369   0.00604   0.00101  -0.0002   0.1732   0.4905
   2.350   0.2716   0.00611   0.00107  -0.0002   0.1541   0.5130
   2.500   0.2889   0.00615   0.00111  -0.0002   0.1458   0.5257
   2.650   0.3062   0.00619   0.00114  -0.0002   0.1362   0.5382
   2.800   0.3234   0.00624   0.00119  -0.0001   0.1265   0.5496
   2.950   0.3408   0.00627   0.00123  -0.0001   0.1200   0.5614
   3.100   0.3580   0.00632   0.00128  -0.0001   0.1111   0.5738
   3.250   0.3753   0.00636   0.00132  -0.0001   0.1051   0.5865
   3.400   0.3926   0.00641   0.00137  -0.0001   0.0974   0.5986
   3.550   0.4098   0.00646   0.00143  -0.0001   0.0909   0.6112
   3.700   0.4271   0.00650   0.00148  -0.0000   0.0850   0.6232
   3.850   0.4442   0.00656   0.00154   0.0000   0.0782   0.6360
   4.000   0.4616   0.00660   0.00159   0.0000   0.0737   0.6478
   4.150   0.4789   0.00665   0.00165   0.0001   0.0699   0.6600
   4.300   0.4960   0.00671   0.00171   0.0001   0.0641   0.6726
   4.450   0.5132   0.00676   0.00178   0.0002   0.0604   0.6851
   4.600   0.5304   0.00682   0.00185   0.0002   0.0558   0.6977
   4.750   0.5478   0.00686   0.00191   0.0002   0.0538   0.7102
   4.900   0.5649   0.00692   0.00198   0.0003   0.0503   0.7231
   5.050   0.5820   0.00698   0.00205   0.0004   0.0467   0.7367
   5.200   0.5992   0.00702   0.00212   0.0004   0.0447   0.7500
   5.350   0.6163   0.00710   0.00221   0.0005   0.0418   0.7618
   5.500   0.6335   0.00715   0.00228   0.0006   0.0396   0.7747
   5.650   0.6507   0.00720   0.00236   0.0007   0.0379   0.7872
   5.800   0.6676   0.00729   0.00245   0.0008   0.0348   0.7994
   5.950   0.6848   0.00734   0.00253   0.0009   0.0336   0.8114
   6.100   0.7019   0.00740   0.00261   0.0010   0.0324   0.8234
   6.250   0.7189   0.00747   0.00271   0.0011   0.0307   0.8355
   6.400   0.7358   0.00755   0.00280   0.0012   0.0288   0.8466
   6.550   0.7529   0.00761   0.00289   0.0013   0.0281   0.8578
   6.700   0.7698   0.00768   0.00298   0.0015   0.0270   0.8693
   6.850   0.7866   0.00778   0.00310   0.0017   0.0254   0.8792
   7.000   0.8034   0.00786   0.00320   0.0018   0.0241   0.8896
   7.150   0.8203   0.00793   0.00329   0.0020   0.0236   0.8994
   7.300   0.8371   0.00802   0.00340   0.0022   0.0227   0.9079
   7.450   0.8536   0.00812   0.00351   0.0025   0.0218   0.9174
   7.600   0.8703   0.00823   0.00363   0.0027   0.0206   0.9252
   7.750   0.8867   0.00831   0.00374   0.0030   0.0201   0.9337
   7.900   0.9035   0.00842   0.00386   0.0032   0.0194   0.9403
   8.050   0.9196   0.00852   0.00397   0.0035   0.0188   0.9481
   8.200   0.9359   0.00864   0.00410   0.0038   0.0180   0.9544
   8.350   0.9519   0.00876   0.00424   0.0042   0.0172   0.9605
   8.500   0.9681   0.00888   0.00436   0.0045   0.0167   0.9667
   8.650   0.9846   0.00899   0.00448   0.0048   0.0165   0.9712
   8.800   1.0008   0.00911   0.00461   0.0052   0.0161   0.9763
   8.950   1.0172   0.00924   0.00474   0.0054   0.0156   0.9807
   9.100   1.0341   0.00939   0.00489   0.0056   0.0151   0.9839
   9.250   1.0518   0.00954   0.00504   0.0056   0.0145   0.9869
   9.400   1.0695   0.00970   0.00520   0.0056   0.0139   0.9897
   9.550   1.0869   0.00984   0.00535   0.0056   0.0137   0.9922
   9.700   1.1045   0.00999   0.00549   0.0057   0.0135   0.9940
   9.850   1.1236   0.01015   0.00566   0.0053   0.0131   0.9950
  10.000   1.1425   0.01032   0.00583   0.0051   0.0127   0.9960
  10.150   1.1611   0.01051   0.00601   0.0048   0.0123   0.9970
  10.300   1.1796   0.01070   0.00621   0.0046   0.0119   0.9978
  10.450   1.1980   0.01090   0.00640   0.0045   0.0114   0.9986
  10.600   1.2163   0.01108   0.00660   0.0043   0.0111   0.9993
  10.750   1.2347   0.01126   0.00678   0.0042   0.0110   0.9999
  10.900   1.2501   0.01143   0.00696   0.0046   0.0109   1.0000
  11.050   1.2646   0.01160   0.00713   0.0053   0.0107   1.0000
  11.200   1.2794   0.01178   0.00732   0.0059   0.0105   1.0000
  11.350   1.2942   0.01197   0.00751   0.0065   0.0103   1.0000
  11.500   1.3092   0.01216   0.00772   0.0071   0.0101   1.0000
  11.650   1.3241   0.01238   0.00794   0.0076   0.0099   1.0000
  11.800   1.3391   0.01260   0.00817   0.0082   0.0096   1.0000
  11.950   1.3539   0.01283   0.00841   0.0087   0.0093   1.0000
  12.100   1.3687   0.01306   0.00865   0.0093   0.0091   1.0000
  12.250   1.3835   0.01330   0.00891   0.0099   0.0088   1.0000
  12.400   1.3986   0.01352   0.00913   0.0104   0.0088   1.0000
  12.550   1.4136   0.01374   0.00937   0.0109   0.0087   1.0000
  12.700   1.4284   0.01397   0.00961   0.0115   0.0086   1.0000
  12.850   1.4431   0.01420   0.00986   0.0120   0.0085   1.0000
  13.000   1.4576   0.01445   0.01013   0.0126   0.0083   1.0000
  13.150   1.4719   0.01471   0.01040   0.0133   0.0082   1.0000
  13.300   1.4860   0.01498   0.01069   0.0139   0.0081   1.0000
  13.450   1.4999   0.01526   0.01098   0.0146   0.0079   1.0000
  13.600   1.5136   0.01556   0.01129   0.0153   0.0078   1.0000
  13.750   1.5269   0.01587   0.01162   0.0160   0.0076   1.0000
  13.900   1.5399   0.01619   0.01196   0.0168   0.0075   1.0000
  14.050   1.5527   0.01652   0.01231   0.0176   0.0073   1.0000
  14.200   1.5651   0.01687   0.01268   0.0185   0.0071   1.0000
  14.350   1.5771   0.01723   0.01307   0.0194   0.0070   1.0000
  14.500   1.5886   0.01760   0.01347   0.0204   0.0068   1.0000
  14.650   1.6003   0.01794   0.01384   0.0213   0.0068   1.0000
  14.800   1.6111   0.01829   0.01421   0.0224   0.0067   1.0000
  14.950   1.6203   0.01864   0.01459   0.0238   0.0067   1.0000
  15.100   1.6287   0.01902   0.01500   0.0252   0.0067   1.0000
  15.250   1.6371   0.01942   0.01543   0.0266   0.0066   1.0000
  15.400   1.6450   0.01986   0.01590   0.0280   0.0066   1.0000
  15.550   1.6528   0.02033   0.01639   0.0293   0.0065   1.0000
  15.700   1.6603   0.02082   0.01692   0.0306   0.0065   1.0000
  15.850   1.6674   0.02136   0.01750   0.0318   0.0064   1.0000
  16.000   1.6741   0.02194   0.01811   0.0330   0.0064   1.0000
  16.150   1.6804   0.02257   0.01878   0.0342   0.0063   1.0000
  16.300   1.6864   0.02325   0.01949   0.0353   0.0062   1.0000
  16.450   1.6918   0.02399   0.02027   0.0363   0.0062   1.0000
  16.600   1.6969   0.02479   0.02110   0.0372   0.0061   1.0000
  16.750   1.7016   0.02567   0.02202   0.0381   0.0061   1.0000
  16.900   1.7055   0.02661   0.02301   0.0389   0.0060   1.0000
  17.050   1.7090   0.02766   0.02409   0.0395   0.0060   1.0000
  17.200   1.7118   0.02882   0.02529   0.0401   0.0059   1.0000
  17.350   1.7140   0.03006   0.02658   0.0405   0.0058   1.0000
  17.500   1.7156   0.03142   0.02799   0.0408   0.0058   1.0000
  17.650   1.7163   0.03293   0.02954   0.0409   0.0057   1.0000
  17.800   1.7164   0.03457   0.03123   0.0409   0.0057   1.0000
  17.950   1.7155   0.03636   0.03308   0.0407   0.0056   1.0000
  18.100   1.7134   0.03834   0.03511   0.0403   0.0055   1.0000
  18.250   1.7104   0.04050   0.03732   0.0398   0.0055   1.0000
  18.400   1.7058   0.04292   0.03980   0.0390   0.0054   1.0000
  18.550   1.7002   0.04549   0.04243   0.0381   0.0053   1.0000
  18.700   1.6929   0.04833   0.04534   0.0369   0.0053   1.0000
  18.850   1.6843   0.05141   0.04847   0.0356   0.0053   1.0000
  19.000   1.6741   0.05473   0.05186   0.0341   0.0053   1.0000
  19.150   1.6619   0.05836   0.05556   0.0323   0.0053   1.0000
  19.300   1.6471   0.06239   0.05966   0.0303   0.0052   1.0000
  19.450   1.6324   0.06648   0.06381   0.0283   0.0052   1.0000
  19.600   1.6141   0.07112   0.06853   0.0258   0.0052   1.0000
  19.750   1.5928   0.07620   0.07369   0.0232   0.0052   1.0000
  19.900   1.5715   0.08136   0.07892   0.0204   0.0052   1.0000
  20.050   1.5467   0.08713   0.08476   0.0173   0.0053   1.0000
  20.200   1.5213   0.09297   0.09068   0.0141   0.0053   1.0000
  20.350   1.4916   0.09962   0.09741   0.0104   0.0053   1.0000
  20.500   1.4624   0.10628   0.10414   0.0066   0.0054   1.0000
  20.650   1.4288   0.11369   0.11164   0.0023   0.0055   1.0000
  20.800   1.3978   0.12088   0.11891  -0.0019   0.0055   1.0000
  20.950   1.3601   0.12937   0.12750  -0.0071   0.0056   1.0000
  21.100   1.3260   0.13743   0.13564  -0.0121   0.0057   1.0000
  21.250   1.2941   0.14541   0.14370  -0.0172   0.0057   1.0000
  21.400   1.2627   0.15359   0.15196  -0.0225   0.0058   1.0000
  21.550   1.2321   0.16180   0.16025  -0.0280   0.0058   1.0000
  21.700   1.2044   0.16982   0.16834  -0.0335   0.0059   1.0000
  21.850   1.1795   0.17761   0.17619  -0.0389   0.0059   1.0000
  22.000   1.1570   0.18520   0.18384  -0.0442   0.0059   1.0000
  22.150   1.1375   0.19234   0.19105  -0.0492   0.0059   1.0000
  22.300   1.1293   0.19695   0.19568  -0.0525   0.0058   1.0000
  22.450   1.1145   0.20331   0.20209  -0.0570   0.0058   1.0000
  22.600   1.1087   0.20759   0.20640  -0.0600   0.0058   1.0000
  22.750   1.0973   0.21349   0.21233  -0.0642   0.0057   1.0000
  22.900   1.0938   0.21736   0.21622  -0.0669   0.0056   1.0000
  23.050   1.0840   0.22311   0.22200  -0.0710   0.0055   1.0000
