  
       XFOIL         Version 6.99
  
 Calculated polar for: NACA 0012                                       
  
 1 1 Reynolds number fixed          Mach number fixed         
  
 xtrf =   1.000 (top)        1.000 (bottom)  
 Mach =   0.200     Re =     2.500 e 6     Ncrit =   5.000
  
   alpha    CL        CD       CDp       CM     Top_Xtr  Bot_Xtr
  ------ -------- --------- --------- -------- -------- --------
  -5.000  -0.5670   0.00778   0.00243  -0.0020   0.8247   0.0583
  -4.850  -0.5502   0.00770   0.00234  -0.0019   0.8124   0.0622
  -4.700  -0.5334   0.00763   0.00226  -0.0017   0.7998   0.0667
  -4.550  -0.5166   0.00755   0.00217  -0.0016   0.7873   0.0719
  -4.400  -0.4997   0.00750   0.00209  -0.0015   0.7742   0.0760
  -4.250  -0.4830   0.00741   0.00200  -0.0013   0.7610   0.0831
  -4.100  -0.4660   0.00736   0.00194  -0.0013   0.7479   0.0878
  -3.950  -0.4492   0.00729   0.00186  -0.0011   0.7346   0.0950
  -3.800  -0.4322   0.00724   0.00179  -0.0011   0.7216   0.1011
  -3.650  -0.4154   0.00717   0.00171  -0.0010   0.7078   0.1097
  -3.500  -0.3984   0.00710   0.00165  -0.0009   0.6949   0.1174
  -3.350  -0.3814   0.00705   0.00159  -0.0008   0.6818   0.1258
  -3.200  -0.3645   0.00698   0.00153  -0.0007   0.6695   0.1353
  -3.050  -0.3474   0.00694   0.00147  -0.0007   0.6561   0.1438
  -2.900  -0.3305   0.00688   0.00141  -0.0006   0.6428   0.1543
  -2.750  -0.3136   0.00681   0.00136  -0.0005   0.6291   0.1660
  -2.600  -0.2966   0.00676   0.00131  -0.0005   0.6156   0.1765
  -2.450  -0.2794   0.00672   0.00127  -0.0004   0.6032   0.1864
  -2.300  -0.2625   0.00667   0.00122  -0.0004   0.5902   0.1994
  -2.150  -0.2455   0.00662   0.00118  -0.0003   0.5770   0.2108
  -2.000  -0.2284   0.00657   0.00114  -0.0003   0.5647   0.2226
  -1.850  -0.2113   0.00653   0.00111  -0.0003   0.5518   0.2352
  -1.700  -0.1942   0.00650   0.00108  -0.0002   0.5392   0.2475
  -1.550  -0.1772   0.00646   0.00105  -0.0002   0.5258   0.2611
  -1.400  -0.1601   0.00642   0.00102  -0.0002   0.5135   0.2744
  -1.250  -0.1429   0.00639   0.00099  -0.0001   0.5010   0.2869
  -1.100  -0.1258   0.00636   0.00097  -0.0001   0.4894   0.3003
  -0.950  -0.1086   0.00635   0.00096  -0.0001   0.4762   0.3121
  -0.800  -0.0915   0.00632   0.00094  -0.0001   0.4634   0.3263
  -0.650  -0.0743   0.00630   0.00093  -0.0001   0.4507   0.3393
  -0.500  -0.0572   0.00629   0.00092  -0.0001   0.4375   0.3520
  -0.350  -0.0400   0.00629   0.00091  -0.0000   0.4248   0.3644
  -0.050  -0.0057   0.00627   0.00090  -0.0000   0.3991   0.3907
   0.100   0.0115   0.00627   0.00090   0.0000   0.3867   0.4037
   0.250   0.0287   0.00628   0.00091   0.0000   0.3747   0.4156
   0.400   0.0457   0.00629   0.00091   0.0000   0.3603   0.4296
   0.550   0.0630   0.00630   0.00092   0.0000   0.3479   0.4417
   0.700   0.0801   0.00631   0.00093   0.0001   0.3348   0.4550
   0.850   0.0973   0.00632   0.00094   0.0001   0.3224   0.4674
   1.000   0.1144   0.00635   0.00096   0.0001   0.3086   0.4797
   1.150   0.1315   0.00638   0.00098   0.0001   0.2954   0.4924
   1.300   0.1486   0.00641   0.00100   0.0002   0.2817   0.5051
   1.450   0.1658   0.00643   0.00103   0.0002   0.2698   0.5186
   1.600   0.1829   0.00647   0.00105   0.0002   0.2568   0.5303
   1.750   0.2000   0.00651   0.00109   0.0002   0.2442   0.5429
   1.900   0.2170   0.00655   0.00112   0.0003   0.2308   0.5558
   2.050   0.2341   0.00659   0.00115   0.0003   0.2191   0.5693
   2.200   0.2512   0.00663   0.00119   0.0004   0.2070   0.5816
   2.350   0.2682   0.00668   0.00123   0.0004   0.1958   0.5942
   2.500   0.2852   0.00674   0.00128   0.0004   0.1834   0.6073
   2.650   0.3022   0.00679   0.00133   0.0005   0.1717   0.6212
   2.800   0.3192   0.00683   0.00138   0.0006   0.1619   0.6341
   2.950   0.3362   0.00688   0.00143   0.0006   0.1519   0.6471
   3.100   0.3532   0.00696   0.00149   0.0007   0.1401   0.6593
   3.250   0.3702   0.00700   0.00155   0.0007   0.1322   0.6729
   3.400   0.3872   0.00706   0.00161   0.0008   0.1233   0.6860
   3.550   0.4040   0.00714   0.00168   0.0009   0.1134   0.6990
   3.700   0.4211   0.00718   0.00174   0.0010   0.1073   0.7120
   3.850   0.4379   0.00726   0.00181   0.0011   0.0987   0.7259
   4.000   0.4549   0.00731   0.00188   0.0012   0.0928   0.7392
   4.150   0.4717   0.00738   0.00196   0.0013   0.0859   0.7527
   4.300   0.4886   0.00744   0.00203   0.0014   0.0806   0.7657
   4.450   0.5054   0.00752   0.00212   0.0015   0.0742   0.7782
   4.600   0.5223   0.00757   0.00219   0.0016   0.0704   0.7913
   4.750   0.5390   0.00766   0.00229   0.0018   0.0649   0.8042
   4.900   0.5558   0.00772   0.00237   0.0019   0.0613   0.8169
   5.050   0.5725   0.00780   0.00247   0.0021   0.0568   0.8285
   5.200   0.5894   0.00787   0.00255   0.0022   0.0540   0.8406
   5.350   0.6060   0.00794   0.00265   0.0024   0.0512   0.8523
   5.500   0.6225   0.00804   0.00275   0.0026   0.0473   0.8634
   5.650   0.6393   0.00811   0.00285   0.0028   0.0451   0.8742
   5.800   0.6558   0.00820   0.00295   0.0030   0.0426   0.8848
   5.950   0.6723   0.00829   0.00306   0.0032   0.0400   0.8946
   6.100   0.6888   0.00837   0.00317   0.0035   0.0386   0.9046
   6.250   0.7051   0.00848   0.00328   0.0037   0.0363   0.9133
   6.400   0.7215   0.00859   0.00340   0.0040   0.0341   0.9222
   6.550   0.7377   0.00868   0.00351   0.0043   0.0329   0.9301
   6.700   0.7541   0.00878   0.00363   0.0046   0.0315   0.9380
   6.850   0.7701   0.00891   0.00376   0.0049   0.0300   0.9448
   7.000   0.7863   0.00902   0.00389   0.0052   0.0287   0.9520
   7.150   0.8028   0.00913   0.00401   0.0055   0.0278   0.9578
   7.300   0.8191   0.00926   0.00414   0.0058   0.0266   0.9638
   7.450   0.8355   0.00940   0.00428   0.0060   0.0253   0.9691
   7.600   0.8527   0.00954   0.00442   0.0061   0.0241   0.9732
   7.750   0.8702   0.00967   0.00456   0.0061   0.0234   0.9773
   7.900   0.8874   0.00982   0.00470   0.0062   0.0227   0.9811
   8.050   0.9053   0.00997   0.00486   0.0061   0.0217   0.9839
   8.200   0.9241   0.01015   0.00502   0.0058   0.0208   0.9862
   8.350   0.9427   0.01031   0.00518   0.0056   0.0201   0.9884
   8.500   0.9609   0.01046   0.00534   0.0054   0.0195   0.9908
   8.650   0.9785   0.01063   0.00551   0.0054   0.0188   0.9931
   8.800   0.9972   0.01081   0.00569   0.0051   0.0181   0.9944
   8.950   1.0164   0.01101   0.00589   0.0047   0.0174   0.9953
   9.100   1.0356   0.01120   0.00608   0.0043   0.0168   0.9961
   9.250   1.0548   0.01137   0.00627   0.0040   0.0165   0.9970
   9.400   1.0737   0.01156   0.00646   0.0037   0.0161   0.9979
   9.550   1.0924   0.01176   0.00666   0.0034   0.0156   0.9988
   9.700   1.1110   0.01196   0.00688   0.0031   0.0152   0.9996
   9.850   1.1270   0.01217   0.00709   0.0034   0.0147   1.0000
  10.000   1.1406   0.01237   0.00730   0.0042   0.0143   1.0000
  10.150   1.1542   0.01258   0.00752   0.0050   0.0138   1.0000
  10.300   1.1683   0.01276   0.00771   0.0057   0.0137   1.0000
  10.450   1.1826   0.01296   0.00792   0.0064   0.0134   1.0000
  10.600   1.1970   0.01316   0.00813   0.0070   0.0131   1.0000
  10.750   1.2114   0.01337   0.00836   0.0076   0.0128   1.0000
  10.900   1.2258   0.01360   0.00860   0.0082   0.0125   1.0000
  11.050   1.2401   0.01384   0.00885   0.0088   0.0122   1.0000
  11.200   1.2544   0.01409   0.00911   0.0095   0.0119   1.0000
  11.350   1.2686   0.01435   0.00939   0.0101   0.0116   1.0000
  11.500   1.2827   0.01462   0.00968   0.0107   0.0113   1.0000
  11.650   1.2970   0.01488   0.00996   0.0113   0.0111   1.0000
  11.800   1.3113   0.01513   0.01023   0.0119   0.0110   1.0000
  11.950   1.3255   0.01539   0.01051   0.0125   0.0108   1.0000
  12.100   1.3395   0.01566   0.01081   0.0131   0.0107   1.0000
  12.250   1.3534   0.01595   0.01112   0.0138   0.0105   1.0000
  12.400   1.3670   0.01624   0.01144   0.0145   0.0103   1.0000
  12.550   1.3804   0.01655   0.01177   0.0151   0.0101   1.0000
  12.700   1.3935   0.01687   0.01211   0.0159   0.0099   1.0000
  12.850   1.4064   0.01720   0.01247   0.0166   0.0097   1.0000
  13.000   1.4189   0.01755   0.01284   0.0174   0.0096   1.0000
  13.150   1.4310   0.01792   0.01323   0.0183   0.0094   1.0000
  13.300   1.4427   0.01831   0.01365   0.0192   0.0092   1.0000
  13.450   1.4539   0.01872   0.01409   0.0201   0.0090   1.0000
  13.600   1.4648   0.01913   0.01454   0.0211   0.0088   1.0000
  13.750   1.4756   0.01950   0.01494   0.0221   0.0087   1.0000
  13.900   1.4848   0.01988   0.01536   0.0234   0.0086   1.0000
  14.050   1.4933   0.02029   0.01581   0.0248   0.0086   1.0000
  14.200   1.5013   0.02073   0.01629   0.0261   0.0085   1.0000
  14.350   1.5090   0.02121   0.01680   0.0274   0.0084   1.0000
  14.500   1.5164   0.02172   0.01735   0.0287   0.0083   1.0000
  14.650   1.5235   0.02226   0.01794   0.0300   0.0082   1.0000
  14.800   1.5302   0.02285   0.01857   0.0312   0.0081   1.0000
  14.950   1.5365   0.02349   0.01925   0.0323   0.0080   1.0000
  15.100   1.5423   0.02418   0.01999   0.0334   0.0079   1.0000
  15.250   1.5478   0.02492   0.02077   0.0344   0.0078   1.0000
  15.400   1.5526   0.02574   0.02164   0.0354   0.0077   1.0000
  15.550   1.5570   0.02663   0.02257   0.0362   0.0076   1.0000
  15.700   1.5610   0.02760   0.02359   0.0370   0.0075   1.0000
  15.850   1.5642   0.02866   0.02470   0.0376   0.0075   1.0000
  16.000   1.5669   0.02983   0.02592   0.0381   0.0074   1.0000
  16.150   1.5690   0.03112   0.02726   0.0385   0.0073   1.0000
  16.300   1.5703   0.03252   0.02872   0.0387   0.0072   1.0000
  16.450   1.5707   0.03410   0.03036   0.0387   0.0072   1.0000
  16.600   1.5706   0.03580   0.03212   0.0386   0.0071   1.0000
  16.750   1.5690   0.03773   0.03411   0.0383   0.0070   1.0000
  16.900   1.5666   0.03981   0.03626   0.0377   0.0070   1.0000
  17.050   1.5630   0.04214   0.03866   0.0370   0.0069   1.0000
  17.200   1.5576   0.04477   0.04135   0.0360   0.0069   1.0000
  17.350   1.5512   0.04758   0.04425   0.0348   0.0068   1.0000
  17.500   1.5434   0.05063   0.04736   0.0334   0.0068   1.0000
  17.650   1.5351   0.05385   0.05065   0.0318   0.0068   1.0000
  17.800   1.5248   0.05738   0.05426   0.0300   0.0068   1.0000
  17.950   1.5122   0.06126   0.05821   0.0281   0.0068   1.0000
  18.100   1.4971   0.06554   0.06258   0.0258   0.0068   1.0000
  18.250   1.4802   0.07015   0.06727   0.0234   0.0068   1.0000
  18.400   1.4607   0.07517   0.07238   0.0207   0.0068   1.0000
  18.550   1.4383   0.08072   0.07800   0.0177   0.0068   1.0000
  18.700   1.4126   0.08686   0.08423   0.0144   0.0068   1.0000
  18.850   1.3874   0.09294   0.09040   0.0111   0.0068   1.0000
  19.000   1.3608   0.09935   0.09689   0.0076   0.0069   1.0000
  19.150   1.3324   0.10622   0.10384   0.0038   0.0069   1.0000
  19.300   1.3034   0.11318   0.11089  -0.0001   0.0070   1.0000
  19.450   1.2730   0.12062   0.11841  -0.0043   0.0071   1.0000
  19.600   1.2426   0.12823   0.12611  -0.0087   0.0072   1.0000
  19.750   1.2139   0.13567   0.13363  -0.0131   0.0072   1.0000
  19.900   1.1874   0.14300   0.14103  -0.0175   0.0073   1.0000
  20.050   1.1625   0.15025   0.14835  -0.0220   0.0073   1.0000
  20.200   1.1402   0.15721   0.15537  -0.0264   0.0073   1.0000
  20.350   1.1210   0.16368   0.16190  -0.0305   0.0073   1.0000
  20.500   1.1078   0.16910   0.16737  -0.0340   0.0073   1.0000
  20.650   1.0923   0.17520   0.17351  -0.0379   0.0073   1.0000
  20.800   1.0833   0.17997   0.17831  -0.0410   0.0073   1.0000
  20.950   1.0714   0.18556   0.18395  -0.0447   0.0072   1.0000
  21.100   1.0653   0.18984   0.18825  -0.0476   0.0072   1.0000
  21.250   1.0558   0.19501   0.19346  -0.0510   0.0071   1.0000
  21.400   1.0513   0.19901   0.19748  -0.0537   0.0070   1.0000
  21.550   1.0452   0.20354   0.20203  -0.0567   0.0070   1.0000
  21.700   1.0413   0.20756   0.20608  -0.0595   0.0069   1.0000
  21.850   1.0397   0.21099   0.20952  -0.0618   0.0068   1.0000
  22.000   1.0376   0.21462   0.21318  -0.0643   0.0068   1.0000
  22.150   1.0349   0.21851   0.21710  -0.0669   0.0067   1.0000
  22.300   1.0344   0.22177   0.22038  -0.0692   0.0067   1.0000
  22.450   1.0337   0.22513   0.22376  -0.0715   0.0066   1.0000
  22.600   1.0302   0.22944   0.22810  -0.0744   0.0065   1.0000
  22.750   1.0298   0.23284   0.23152  -0.0768   0.0065   1.0000
  22.900   1.0267   0.23718   0.23589  -0.0797   0.0064   1.0000
  23.050   1.0245   0.24135   0.24008  -0.0825   0.0062   1.0000
